Version 4
SHEET 1 880 680
FLAG 160 96 A0
IOPIN 160 96 In
FLAG 160 128 A1
IOPIN 160 128 In
FLAG 160 160 A2
IOPIN 160 160 In
FLAG 160 208 B0
IOPIN 160 208 In
FLAG 160 240 B1
IOPIN 160 240 In
FLAG 160 272 B2
IOPIN 160 272 In
FLAG 288 16 EN
IOPIN 288 16 In
FLAG 384 16 Vdd
IOPIN 384 16 In
FLAG 336 352 0
FLAG -192 48 0
FLAG -32 48 0
FLAG -288 240 0
FLAG -128 240 0
FLAG 32 240 0
FLAG -288 400 0
FLAG -128 400 0
FLAG 32 400 0
FLAG -192 -32 Cin
IOPIN -192 -32 In
FLAG -32 -32 EN
IOPIN -32 -32 In
FLAG 32 160 A0
IOPIN 32 160 In
FLAG -128 160 A1
IOPIN -128 160 In
FLAG -288 160 A2
IOPIN -288 160 In
FLAG 32 320 B0
IOPIN 32 320 In
FLAG -128 320 B1
IOPIN -128 320 In
FLAG -288 320 B2
IOPIN -288 320 In
FLAG 512 112 S0
IOPIN 512 112 Out
FLAG 512 144 S1
IOPIN 512 144 Out
FLAG 512 176 S2
IOPIN 512 176 Out
FLAG 512 240 Cout
IOPIN 512 240 Out
FLAG -304 48 0
FLAG -304 -32 Vdd
IOPIN -304 -32 In
FLAG 160 336 Cin
IOPIN 160 336 In
SYMBOL ADDER_EN_SYM 336 176 R0
SYMATTR InstName X1
SYMBOL voltage -192 -48 R0
WINDOW 123 0 0 Left 0
WINDOW 39 0 0 Left 0
SYMATTR InstName V1
SYMATTR Value 0
SYMBOL voltage -288 144 R0
WINDOW 123 0 0 Left 0
WINDOW 39 0 0 Left 0
SYMATTR InstName V2
SYMATTR Value 10
SYMBOL voltage -128 144 R0
WINDOW 123 0 0 Left 0
WINDOW 39 0 0 Left 0
SYMATTR InstName V3
SYMATTR Value 10
SYMBOL voltage 32 144 R0
WINDOW 123 0 0 Left 0
WINDOW 39 0 0 Left 0
SYMATTR InstName V4
SYMATTR Value 0
SYMBOL voltage -288 304 R0
WINDOW 123 0 0 Left 0
WINDOW 39 0 0 Left 0
SYMATTR InstName V5
SYMATTR Value 10
SYMBOL voltage -128 304 R0
WINDOW 123 0 0 Left 0
WINDOW 39 0 0 Left 0
SYMATTR InstName V6
SYMATTR Value 0
SYMBOL voltage 32 304 R0
WINDOW 123 0 0 Left 0
WINDOW 39 0 0 Left 0
SYMATTR InstName V7
SYMATTR Value 10
SYMBOL voltage -32 -48 R0
WINDOW 3 -106 -57 Left 2
WINDOW 123 0 0 Left 0
WINDOW 39 0 0 Left 0
SYMATTR Value PULSE(0 10 1 0.001 0.001 1 2)
SYMATTR InstName V8
SYMBOL voltage -304 -48 R0
WINDOW 123 0 0 Left 0
WINDOW 39 0 0 Left 0
SYMATTR InstName V9
SYMATTR Value 10
TEXT 160 400 Left 2 !.tran 2
