Version 4
SHEET 1 880 680
WIRE 112 -160 64 -160
WIRE 0 -96 -48 -96
WIRE 240 -64 176 -64
WIRE 0 -32 -48 -32
WIRE 240 -16 240 -64
WIRE 112 32 64 32
FLAG -64 80 A0
IOPIN -64 80 In
FLAG -64 112 A1
IOPIN -64 112 In
FLAG -64 144 A2
IOPIN -64 144 In
FLAG -64 176 B0
IOPIN -64 176 In
FLAG -64 208 B1
IOPIN -64 208 In
FLAG -64 240 B2
IOPIN -64 240 In
FLAG 240 448 Vneg
IOPIN 240 448 In
FLAG 528 112 S0
IOPIN 528 112 Out
FLAG 528 176 S1
IOPIN 528 176 Out
FLAG 528 240 S2
IOPIN 528 240 Out
FLAG 528 336 Cout
IOPIN 528 336 Out
FLAG -48 -96 Vpos
IOPIN -48 -96 In
FLAG -48 -32 EN
IOPIN -48 -32 In
FLAG 112 -160 Vpos
IOPIN 112 -160 In
FLAG 112 32 Vneg
IOPIN 112 32 In
FLAG -64 320 Cin
IOPIN -64 320 In
SYMBOL CARRY_SELECT_ADDER_SYM 240 208 R0
SYMATTR InstName X1
SYMBOL AND_SYM 80 -64 R0
SYMATTR InstName X2
