Version 4
SHEET 1 880 680
WIRE 144 0 144 -64
WIRE 80 64 -16 64
WIRE 336 96 256 96
WIRE 80 128 -16 128
WIRE 144 256 144 192
FLAG 144 256 0
FLAG -256 -64 Vdd
IOPIN -256 -64 In
FLAG -256 96 A
IOPIN -256 96 In
FLAG -160 -64 B
IOPIN -160 -64 In
FLAG -16 64 A
IOPIN -16 64 In
FLAG -16 128 B
IOPIN -16 128 In
FLAG 144 -64 Vdd
IOPIN 144 -64 In
FLAG -256 16 0
FLAG -256 176 0
FLAG -160 16 0
FLAG 336 96 Y
IOPIN 336 96 Out
SYMBOL AND_SYM 160 96 R0
SYMATTR InstName X1
SYMBOL voltage -256 -80 R0
WINDOW 123 0 0 Left 0
WINDOW 39 0 0 Left 0
SYMATTR InstName V1
SYMATTR Value 2
SYMBOL voltage -256 80 R0
WINDOW 3 -25 133 Left 2
WINDOW 123 0 0 Left 0
WINDOW 39 0 0 Left 0
SYMATTR Value PULSE(0 2 2 0.001 0.001 2 4)
SYMATTR InstName V2
SYMBOL voltage -160 -80 R0
WINDOW 3 -69 -37 Left 2
WINDOW 123 0 0 Left 0
WINDOW 39 0 0 Left 0
SYMATTR Value PULSE(0 2 1 0.001 0.001 1 2)
SYMATTR InstName V3
TEXT 224 -112 Left 2 !.tran 4
