Version 4
SHEET 1 880 680
WIRE 0 16 -32 16
WIRE 288 48 176 48
WIRE 0 80 -32 80
FLAG 160 112 A0
IOPIN 160 112 In
FLAG 160 144 A1
IOPIN 160 144 In
FLAG 160 176 A2
IOPIN 160 176 In
FLAG 160 208 B0
IOPIN 160 208 In
FLAG 160 240 B1
IOPIN 160 240 In
FLAG 160 272 B2
IOPIN 160 272 In
FLAG 288 336 Vneg
IOPIN 288 336 In
FLAG -32 16 Vpos
IOPIN -32 16 In
FLAG -32 80 EN
IOPIN -32 80 In
FLAG 64 -48 Vpos
IOPIN 64 -48 In
FLAG 64 144 Vneg
IOPIN 64 144 In
FLAG 416 112 Z0
IOPIN 416 112 Out
FLAG 416 160 Z1
IOPIN 416 160 Out
FLAG 416 208 Z2
IOPIN 416 208 Out
SYMBOL ASR_SYMBOL 288 192 R0
SYMATTR InstName X1
SYMBOL AND_SYM 80 48 R0
SYMATTR InstName X2
