Version 4
SHEET 1 880 680
FLAG 240 80 A0
IOPIN 240 80 In
FLAG 240 112 A1
IOPIN 240 112 In
FLAG 240 144 A2
IOPIN 240 144 In
FLAG 240 192 B0
IOPIN 240 192 In
FLAG 240 224 B1
IOPIN 240 224 In
FLAG 240 256 B2
IOPIN 240 256 In
FLAG 240 304 EN
IOPIN 240 304 In
FLAG 384 0 Vdd
IOPIN 384 0 In
FLAG 384 384 0
FLAG 528 144 Z0
IOPIN 528 144 Out
FLAG 528 176 Z1
IOPIN 528 176 Out
FLAG 528 208 Z2
IOPIN 528 208 Out
FLAG -160 -16 0
FLAG -160 144 0
FLAG -32 144 0
FLAG 80 144 0
FLAG -160 320 0
FLAG -32 320 0
FLAG 80 320 0
FLAG -16 -16 0
FLAG 80 64 A0
IOPIN 80 64 In
FLAG -32 64 A1
IOPIN -32 64 In
FLAG -160 64 A2
IOPIN -160 64 In
FLAG 80 240 B0
IOPIN 80 240 In
FLAG -32 240 B1
IOPIN -32 240 In
FLAG -160 240 B2
IOPIN -160 240 In
FLAG -16 -96 EN
IOPIN -16 -96 In
FLAG -160 -96 Vdd
IOPIN -160 -96 In
SYMBOL ASR_EN_SYM 384 192 R0
SYMATTR InstName X1
SYMBOL voltage -160 -112 R0
WINDOW 123 0 0 Left 0
WINDOW 39 0 0 Left 0
SYMATTR InstName V1
SYMATTR Value 10
SYMBOL voltage -160 48 R0
WINDOW 123 0 0 Left 0
WINDOW 39 0 0 Left 0
SYMATTR InstName V2
SYMATTR Value 10
SYMBOL voltage -32 48 R0
WINDOW 123 0 0 Left 0
WINDOW 39 0 0 Left 0
SYMATTR InstName V3
SYMATTR Value 0
SYMBOL voltage 80 48 R0
WINDOW 123 0 0 Left 0
WINDOW 39 0 0 Left 0
SYMATTR InstName V4
SYMATTR Value 10
SYMBOL voltage -160 224 R0
WINDOW 123 0 0 Left 0
WINDOW 39 0 0 Left 0
SYMATTR InstName V5
SYMATTR Value 0
SYMBOL voltage -32 224 R0
WINDOW 123 0 0 Left 0
WINDOW 39 0 0 Left 0
SYMATTR InstName V6
SYMATTR Value 0
SYMBOL voltage 80 224 R0
WINDOW 123 0 0 Left 0
WINDOW 39 0 0 Left 0
SYMATTR InstName V7
SYMATTR Value 10
SYMBOL voltage -16 -112 R0
WINDOW 123 0 0 Left 0
WINDOW 39 0 0 Left 0
SYMATTR InstName V8
SYMATTR Value PULSE(0 10 1 0.001 0.001 1 2)
TEXT 464 352 Left 2 !.tran 2
