Version 4
SHEET 1 880 680
FLAG 16 144 0
FLAG 112 144 0
FLAG -80 336 0
FLAG 16 336 0
FLAG 112 336 0
FLAG -80 144 0
FLAG -192 256 0
FLAG -192 176 Vdd
IOPIN -192 176 In
FLAG -80 64 A2
IOPIN -80 64 In
FLAG 16 64 A1
IOPIN 16 64 In
FLAG 112 64 A0
IOPIN 112 64 In
FLAG 352 64 Vdd
IOPIN 352 64 In
FLAG -80 256 B2
IOPIN -80 256 In
FLAG 16 256 B1
IOPIN 16 256 In
FLAG 112 256 B0
IOPIN 112 256 In
FLAG 224 128 A0
IOPIN 224 128 In
FLAG 224 160 A1
IOPIN 224 160 In
FLAG 224 192 A2
IOPIN 224 192 In
FLAG 224 224 B0
IOPIN 224 224 In
FLAG 224 256 B1
IOPIN 224 256 In
FLAG 224 288 B2
IOPIN 224 288 In
FLAG 480 128 Z0
IOPIN 480 128 Out
FLAG 480 176 Z1
IOPIN 480 176 Out
FLAG 480 224 Z2
IOPIN 480 224 Out
FLAG 352 352 0
SYMBOL ASR_SYMBOL 352 208 R0
SYMATTR InstName X1
SYMBOL voltage -192 160 R0
WINDOW 123 0 0 Left 0
WINDOW 39 0 0 Left 0
SYMATTR InstName V1
SYMATTR Value 10
SYMBOL voltage -80 48 R0
WINDOW 123 0 0 Left 0
WINDOW 39 0 0 Left 0
SYMATTR InstName V2
SYMATTR Value 10
SYMBOL voltage 16 48 R0
WINDOW 123 0 0 Left 0
WINDOW 39 0 0 Left 0
SYMATTR InstName V3
SYMATTR Value 0
SYMBOL voltage 112 48 R0
WINDOW 123 0 0 Left 0
WINDOW 39 0 0 Left 0
SYMATTR InstName V4
SYMATTR Value 10
SYMBOL voltage -80 240 R0
WINDOW 123 0 0 Left 0
WINDOW 39 0 0 Left 0
SYMATTR InstName V5
SYMATTR Value 0
SYMBOL voltage 16 240 R0
WINDOW 123 0 0 Left 0
WINDOW 39 0 0 Left 0
SYMATTR InstName V6
SYMATTR Value 0
SYMBOL voltage 112 240 R0
WINDOW 123 0 0 Left 0
WINDOW 39 0 0 Left 0
SYMATTR InstName V7
SYMATTR Value 10
TEXT 424 320 Left 2 !.tran 8
