Version 4
SHEET 1 880 680
FLAG 112 80 A0
IOPIN 112 80 In
FLAG 416 -16 Vdd
IOPIN 416 -16 In
FLAG -336 96 A2
IOPIN -336 96 In
FLAG -192 96 A1
IOPIN -192 96 In
FLAG -48 96 A0
IOPIN -48 96 In
FLAG -336 272 B2
IOPIN -336 272 In
FLAG -192 272 B1
IOPIN -192 272 In
FLAG -48 272 B0
IOPIN -48 272 In
FLAG -336 176 0
FLAG -192 176 0
FLAG -48 176 0
FLAG -336 352 0
FLAG -192 352 0
FLAG -48 352 0
FLAG 416 448 0
FLAG 704 112 S0
IOPIN 704 112 Out
FLAG 704 176 S1
IOPIN 704 176 Out
FLAG 704 240 S2
IOPIN 704 240 Out
FLAG 704 336 Cout
IOPIN 704 336 Out
FLAG -464 80 Vdd
IOPIN -464 80 In
FLAG -464 160 0
FLAG 112 176 B0
IOPIN 112 176 In
FLAG 112 112 A1
IOPIN 112 112 In
FLAG 112 208 B1
IOPIN 112 208 In
FLAG 112 240 B2
IOPIN 112 240 In
FLAG 112 144 A2
IOPIN 112 144 In
FLAG -464 288 Cin
IOPIN -464 288 In
FLAG -464 368 0
FLAG 112 320 Cin
IOPIN 112 320 In
SYMBOL voltage -336 80 R0
WINDOW 123 0 0 Left 0
WINDOW 39 0 0 Left 0
SYMATTR InstName V1
SYMATTR Value 10
SYMBOL voltage -192 80 R0
WINDOW 123 0 0 Left 0
WINDOW 39 0 0 Left 0
SYMATTR InstName V2
SYMATTR Value 10
SYMBOL voltage -48 80 R0
WINDOW 123 0 0 Left 0
WINDOW 39 0 0 Left 0
SYMATTR InstName V3
SYMATTR Value 0
SYMBOL voltage -336 256 R0
WINDOW 123 0 0 Left 0
WINDOW 39 0 0 Left 0
SYMATTR InstName V4
SYMATTR Value 0
SYMBOL voltage -192 256 R0
WINDOW 123 0 0 Left 0
WINDOW 39 0 0 Left 0
SYMATTR InstName V5
SYMATTR Value 10
SYMBOL voltage -48 256 R0
WINDOW 123 0 0 Left 0
WINDOW 39 0 0 Left 0
SYMATTR InstName V6
SYMATTR Value 10
SYMBOL voltage -464 64 R0
WINDOW 123 0 0 Left 0
WINDOW 39 0 0 Left 0
SYMATTR InstName V7
SYMATTR Value 10
SYMBOL CARRY_SELECT_ADDER_SYM 416 208 R0
SYMATTR InstName X1
SYMBOL voltage -464 272 R0
WINDOW 123 0 0 Left 0
WINDOW 3 -40 138 Left 2
SYMATTR Value PULSE(0 10 1 0.001 0.001 1 2)
SYMATTR SpiceLine Rser=0.5 Cpar=0.25
SYMATTR InstName V8
TEXT 680 432 Left 2 !.tran 2
