Version 4
SHEET 1 880 680
FLAG 512 160 D0
IOPIN 512 160 Out
FLAG 512 208 D1
IOPIN 512 208 Out
FLAG 192 144 In
IOPIN 192 144 In
FLAG 352 64 Vdd
IOPIN 352 64 In
FLAG 192 224 EN
IOPIN 192 224 In
FLAG -64 48 Vdd
IOPIN -64 48 In
FLAG 80 48 EN
IOPIN 80 48 In
FLAG 0 192 In
IOPIN 0 192 In
FLAG -64 128 0
FLAG 80 128 0
FLAG 0 272 0
FLAG 352 304 0
SYMBOL DECODER_1_2_SYM 352 176 R0
SYMATTR InstName X1
SYMBOL voltage -64 32 R0
WINDOW 123 0 0 Left 0
WINDOW 39 0 0 Left 0
SYMATTR InstName V1
SYMATTR Value 10
SYMBOL voltage 80 32 R0
WINDOW 3 -97 -57 Left 2
WINDOW 123 0 0 Left 0
WINDOW 39 0 0 Left 0
SYMATTR InstName V2
SYMATTR Value PULSE(0 10 2 0.001 0.001 2 4)
SYMBOL voltage 0 176 R0
WINDOW 3 -141 118 Left 2
WINDOW 123 0 0 Left 0
WINDOW 39 0 0 Left 0
SYMATTR InstName V3
SYMATTR Value PULSE(0 10 1 0.001 0.001 1 2)
TEXT 432 280 Left 2 !.tran 4
