Version 4
SHEET 1 880 728
WIRE 64 -16 -16 -16
WIRE 272 -16 64 -16
WIRE 352 -16 272 -16
WIRE 64 32 64 -16
WIRE 272 48 272 -16
WIRE -16 112 -48 112
WIRE 512 144 384 144
WIRE 208 176 160 176
WIRE 64 240 64 192
WIRE 272 240 64 240
WIRE 352 384 352 -16
WIRE 352 384 272 384
WIRE -16 448 -16 112
WIRE 208 448 -16 448
WIRE 512 480 384 480
WIRE 160 512 160 176
WIRE 208 512 160 512
WIRE 64 576 64 240
WIRE 272 576 64 576
WIRE 352 576 272 576
WIRE 160 624 160 512
WIRE 160 624 -16 624
FLAG -48 112 In
IOPIN -48 112 In
FLAG -16 -16 Vpos
IOPIN -16 -16 In
FLAG -16 624 EN
IOPIN -16 624 In
FLAG 512 144 D0
IOPIN 512 144 Out
FLAG 512 480 D1
IOPIN 512 480 Out
FLAG 352 576 Vneg
IOPIN 352 576 In
SYMBOL AND_SYM 288 144 R0
SYMATTR InstName X1
SYMBOL NOT_SYM 64 112 R0
SYMATTR InstName X2
SYMBOL AND_SYM 288 480 R0
SYMATTR InstName X5
