Version 4
SHEET 1 880 680
WIRE 208 80 208 64
WIRE 448 128 352 128
WIRE 64 144 0 144
WIRE 448 160 352 160
WIRE 448 192 352 192
WIRE 64 208 0 208
WIRE 448 224 352 224
WIRE 208 288 208 272
FLAG -224 32 Vdd
IOPIN -224 32 In
FLAG -224 208 A
IOPIN -224 208 In
FLAG -112 32 B
IOPIN -112 32 In
FLAG 0 144 A
IOPIN 0 144 In
FLAG 0 208 B
IOPIN 0 208 In
FLAG 208 64 Vdd
IOPIN 208 64 In
FLAG 448 128 D0
IOPIN 448 128 Out
FLAG 448 160 D1
IOPIN 448 160 Out
FLAG 448 192 D2
IOPIN 448 192 Out
FLAG 448 224 D3
IOPIN 448 224 Out
FLAG 208 288 0
FLAG -112 112 0
FLAG -224 288 0
FLAG -224 112 0
FLAG -128 208 EN
IOPIN -128 208 In
FLAG -128 288 0
FLAG 64 272 EN
IOPIN 64 272 In
SYMBOL DECODER2_4 208 176 R0
SYMATTR InstName X1
SYMBOL voltage -224 16 R0
WINDOW 123 0 0 Left 0
WINDOW 39 0 0 Left 0
SYMATTR InstName V1
SYMATTR Value 5
SYMBOL voltage -224 192 R0
WINDOW 123 0 0 Left 0
WINDOW 39 0 0 Left 0
WINDOW 3 -52 99 VLeft 2
SYMATTR InstName V2
SYMATTR Value PULSE(0 5 2 0.001 0.001 2 4)
SYMBOL voltage -112 16 R0
WINDOW 3 -68 -37 Left 2
WINDOW 123 0 0 Left 0
WINDOW 39 0 0 Left 0
SYMATTR Value PULSE(0 5 1 0.001 0.001 1 2)
SYMATTR InstName V3
SYMBOL voltage -128 192 R0
WINDOW 123 0 0 Left 0
WINDOW 39 0 0 Left 0
WINDOW 3 -51 132 Left 2
SYMATTR InstName V4
SYMATTR Value PULSE(0 5 4 0.001 0.001 4 8)
TEXT 416 280 Left 2 !.tran 8
