Version 4
SHEET 1 992 1684
WIRE -448 -64 -512 -64
WIRE -512 -16 -512 -64
WIRE 288 0 288 -64
WIRE -656 64 -704 64
WIRE -592 64 -656 64
WIRE -368 64 -400 64
WIRE -32 64 -368 64
WIRE 224 64 -32 64
WIRE 640 96 400 96
WIRE 224 128 -128 128
WIRE 864 128 816 128
WIRE 640 160 480 160
WIRE -512 192 -512 144
WIRE -512 192 -544 192
WIRE -448 256 -512 256
WIRE 288 256 288 192
WIRE -512 304 -512 256
WIRE 288 352 256 352
WIRE -608 384 -704 384
WIRE -592 384 -608 384
WIRE -368 384 -400 384
WIRE -128 384 -128 128
WIRE -128 384 -368 384
WIRE 288 416 288 352
WIRE -32 480 -32 64
WIRE 224 480 -32 480
WIRE -512 512 -512 464
WIRE -448 512 -512 512
WIRE 640 512 400 512
WIRE -608 544 -608 384
WIRE 224 544 -608 544
WIRE 864 544 816 544
WIRE 480 576 480 160
WIRE 640 576 480 576
WIRE 288 656 288 608
WIRE 288 864 288 816
WIRE -656 928 -656 64
WIRE 224 928 -656 928
WIRE 640 960 400 960
WIRE -128 992 -128 384
WIRE 224 992 -128 992
WIRE 864 992 816 992
WIRE 480 1024 480 576
WIRE 640 1024 480 1024
WIRE 288 1072 288 1056
WIRE 288 1312 288 1248
WIRE -656 1376 -656 928
WIRE 224 1376 -656 1376
WIRE 640 1408 400 1408
WIRE -608 1440 -608 544
WIRE 224 1440 -608 1440
WIRE 864 1440 816 1440
WIRE 480 1472 480 1024
WIRE 640 1472 480 1472
WIRE 288 1552 288 1504
WIRE 480 1568 480 1472
FLAG -704 64 In0
IOPIN -704 64 In
FLAG -704 384 In1
IOPIN -704 384 In
FLAG -448 256 Vpos
IOPIN -448 256 In
FLAG -448 512 Vneg
IOPIN -448 512 In
FLAG -544 192 Vneg
IOPIN -544 192 In
FLAG -448 -64 Vpos
IOPIN -448 -64 In
FLAG 288 -64 Vpos
IOPIN 288 -64 In
FLAG 288 256 Vneg
IOPIN 288 256 In
FLAG 256 352 Vpos
IOPIN 256 352 In
FLAG 288 656 Vneg
IOPIN 288 656 In
FLAG 288 816 Vpos
IOPIN 288 816 In
FLAG 288 1072 Vneg
IOPIN 288 1072 In
FLAG 288 1248 Vpos
IOPIN 288 1248 In
FLAG 288 1552 Vneg
IOPIN 288 1552 In
FLAG 864 128 D0
IOPIN 864 128 Out
FLAG 864 544 D1
IOPIN 864 544 Out
FLAG 864 992 D2
IOPIN 864 992 Out
FLAG 864 1440 D3
IOPIN 864 1440 Out
FLAG 480 1568 EN
IOPIN 480 1568 In
FLAG 704 32 Vpos
IOPIN 704 32 In
FLAG 704 224 Vneg
IOPIN 704 224 In
FLAG 704 448 Vpos
IOPIN 704 448 In
FLAG 704 640 Vneg
IOPIN 704 640 In
FLAG 704 896 Vpos
IOPIN 704 896 In
FLAG 704 1088 Vneg
IOPIN 704 1088 In
FLAG 704 1344 Vpos
IOPIN 704 1344 In
FLAG 704 1536 Vneg
IOPIN 704 1536 In
SYMBOL AND_SYM 304 96 R0
SYMATTR InstName X1
SYMBOL AND_SYM 304 512 R0
SYMATTR InstName X2
SYMBOL AND_SYM 304 960 R0
SYMATTR InstName X3
SYMBOL AND_SYM 304 1408 R0
SYMATTR InstName X4
SYMBOL NOT_SYM -512 384 R0
SYMATTR InstName X7
SYMBOL NOT_SYM -512 64 R0
SYMATTR InstName X8
SYMBOL AND_SYM 720 128 R0
SYMATTR InstName X5
SYMBOL AND_SYM 720 544 R0
SYMATTR InstName X6
SYMBOL AND_SYM 720 992 R0
SYMATTR InstName X9
SYMBOL AND_SYM 720 1440 R0
SYMATTR InstName X10
