Version 4
SHEET 1 880 680
WIRE 496 0 496 -16
WIRE 352 96 336 96
WIRE 672 112 640 112
WIRE 352 144 336 144
WIRE 672 176 640 176
WIRE 352 192 336 192
WIRE 496 304 496 288
FLAG -64 288 0
FLAG -64 80 0
FLAG 240 64 0
FLAG 192 288 0
FLAG 240 -16 A
IOPIN 240 -16 In
FLAG -64 0 Vdd
IOPIN -64 0 In
FLAG -64 208 B
IOPIN -64 208 In
FLAG 192 208 Cin
IOPIN 192 208 In
FLAG 336 96 A
IOPIN 336 96 In
FLAG 336 144 B
IOPIN 336 144 In
FLAG 336 192 Cin
IOPIN 336 192 In
FLAG 496 -16 Vdd
IOPIN 496 -16 In
FLAG 496 304 0
FLAG 672 112 S
IOPIN 672 112 Out
FLAG 672 176 Cout
IOPIN 672 176 Out
SYMBOL FULL_ADDER_SYM 496 144 R0
SYMATTR InstName X1
SYMBOL voltage -64 -16 R0
WINDOW 123 0 0 Left 0
WINDOW 39 0 0 Left 0
WINDOW 3 39 55 Left 2
SYMATTR InstName V1
SYMATTR Value 5
SYMBOL voltage 240 -32 R0
WINDOW 123 0 0 Left 0
WINDOW 39 0 0 Left 0
WINDOW 3 -206 -42 Left 2
SYMATTR InstName V2
SYMATTR Value PULSE(0 5 4 0.001 0.001 4 8)
SYMBOL voltage -64 192 R0
WINDOW 123 0 0 Left 0
WINDOW 39 0 0 Left 0
WINDOW 3 -154 -38 Left 2
SYMATTR InstName V3
SYMATTR Value PULSE(0 5 2 0.001 0.001 2 4)
SYMBOL voltage 192 192 R0
WINDOW 123 0 0 Left 0
WINDOW 39 0 0 Left 0
WINDOW 3 -166 134 Left 2
SYMATTR InstName V4
SYMATTR Value PULSE(0 5 1 0.001 0.001 1 2)
TEXT 600 -88 Left 2 !.tran 8
