Version 4
SHEET 1 880 680
WIRE -48 -32 -80 -32
WIRE 288 0 128 0
WIRE -48 32 -80 32
WIRE 288 32 288 0
FLAG 112 112 A0
IOPIN 112 112 In
FLAG 112 144 A1
IOPIN 112 144 In
FLAG 112 176 A2
IOPIN 112 176 In
FLAG 112 224 B0
IOPIN 112 224 In
FLAG 112 256 B1
IOPIN 112 256 In
FLAG 112 288 B2
IOPIN 112 288 In
FLAG 288 368 Vneg
IOPIN 288 368 In
FLAG -80 -32 Vpos
IOPIN -80 -32 In
FLAG -80 32 EN
IOPIN -80 32 In
FLAG 16 -96 Vpos
IOPIN 16 -96 In
FLAG 16 96 Vneg
IOPIN 16 96 In
FLAG 448 144 Z0
IOPIN 448 144 Out
FLAG 448 192 Z1
IOPIN 448 192 Out
FLAG 448 240 Z2
IOPIN 448 240 Out
SYMBOL GT_SYM 288 208 R0
SYMATTR InstName X1
SYMBOL AND_SYM 32 0 R0
SYMATTR InstName X2
