Version 4
SHEET 1 880 680
FLAG -256 416 0
FLAG -96 416 0
FLAG 48 416 0
FLAG 48 240 0
FLAG -96 240 0
FLAG -256 240 0
FLAG 368 384 0
FLAG -176 80 0
FLAG 16 80 0
FLAG 208 80 A0
IOPIN 208 80 In
FLAG 208 112 A1
IOPIN 208 112 In
FLAG 208 144 A2
IOPIN 208 144 In
FLAG 208 192 B0
IOPIN 208 192 In
FLAG 208 224 B1
IOPIN 208 224 In
FLAG 208 256 B2
IOPIN 208 256 In
FLAG 208 304 EN
IOPIN 208 304 In
FLAG 368 0 Vdd
IOPIN 368 0 In
FLAG 528 144 Z0
IOPIN 528 144 Out
FLAG 528 192 Z1
IOPIN 528 192 Out
FLAG 528 240 Z2
IOPIN 528 240 Out
FLAG 48 160 A0
IOPIN 48 160 In
FLAG -96 160 A1
IOPIN -96 160 In
FLAG -256 160 A2
IOPIN -256 160 In
FLAG 48 336 B0
IOPIN 48 336 In
FLAG -96 336 B1
IOPIN -96 336 In
FLAG -256 336 B2
IOPIN -256 336 In
FLAG 16 0 EN
IOPIN 16 0 In
FLAG -176 0 Vdd
IOPIN -176 0 In
SYMBOL GT_EN_SYM 368 160 R0
SYMATTR InstName X1
SYMBOL voltage -176 -16 R0
WINDOW 123 0 0 Left 0
WINDOW 39 0 0 Left 0
SYMATTR InstName V1
SYMATTR Value 10
SYMBOL voltage 16 -16 R0
WINDOW 3 -129 -50 Left 2
WINDOW 123 0 0 Left 0
WINDOW 39 0 0 Left 0
SYMATTR Value PULSE(0 10 1 0.001 0.001 1 2)
SYMATTR InstName V2
SYMBOL voltage -256 144 R0
WINDOW 123 0 0 Left 0
WINDOW 39 0 0 Left 0
SYMATTR InstName V3
SYMATTR Value 0
SYMBOL voltage -96 144 R0
WINDOW 123 0 0 Left 0
WINDOW 39 0 0 Left 0
SYMATTR InstName V4
SYMATTR Value 10
SYMBOL voltage 48 144 R0
WINDOW 123 0 0 Left 0
WINDOW 39 0 0 Left 0
SYMATTR InstName V5
SYMATTR Value 10
SYMBOL voltage -256 320 R0
WINDOW 123 0 0 Left 0
WINDOW 39 0 0 Left 0
SYMATTR InstName V6
SYMATTR Value 10
SYMBOL voltage -96 320 R0
WINDOW 123 0 0 Left 0
WINDOW 39 0 0 Left 0
SYMATTR InstName V7
SYMATTR Value 10
SYMBOL voltage 48 320 R0
WINDOW 123 0 0 Left 0
WINDOW 39 0 0 Left 0
SYMATTR InstName V8
SYMATTR Value 0
TEXT 200 376 Left 2 !.tran 2
