Version 4
SHEET 1 880 680
FLAG 208 112 A0
IOPIN 208 112 In
FLAG 208 144 A1
IOPIN 208 144 In
FLAG 208 176 A2
IOPIN 208 176 In
FLAG 208 224 B0
IOPIN 208 224 In
FLAG 208 256 B1
IOPIN 208 256 In
FLAG 208 288 B2
IOPIN 208 288 In
FLAG 384 32 Vdd
IOPIN 384 32 In
FLAG 384 368 0
FLAG -64 48 0
FLAG 32 224 0
FLAG -80 224 0
FLAG -192 224 0
FLAG -192 400 0
FLAG -80 400 0
FLAG 32 400 0
FLAG -64 -32 Vdd
IOPIN -64 -32 In
FLAG 32 144 A0
IOPIN 32 144 In
FLAG -80 144 A1
IOPIN -80 144 In
FLAG -192 144 A2
IOPIN -192 144 In
FLAG 32 320 B0
IOPIN 32 320 In
FLAG -80 320 B1
IOPIN -80 320 In
FLAG -192 320 B2
IOPIN -192 320 In
FLAG 544 144 Z0
IOPIN 544 144 Out
FLAG 544 192 Z1
IOPIN 544 192 Out
FLAG 544 240 Z2
IOPIN 544 240 Out
SYMBOL GT_SYM 384 208 R0
SYMATTR InstName X1
SYMBOL voltage -64 -48 R0
WINDOW 123 0 0 Left 0
WINDOW 39 0 0 Left 0
SYMATTR InstName V1
SYMATTR Value 10
SYMBOL voltage 32 128 R0
WINDOW 123 0 0 Left 0
WINDOW 39 0 0 Left 0
SYMATTR InstName V2
SYMATTR Value 10
SYMBOL voltage -80 128 R0
WINDOW 123 0 0 Left 0
WINDOW 39 0 0 Left 0
SYMATTR InstName V3
SYMATTR Value 10
SYMBOL voltage -192 128 R0
WINDOW 123 0 0 Left 0
WINDOW 39 0 0 Left 0
SYMATTR InstName V4
SYMATTR Value 0
SYMBOL voltage 32 304 R0
WINDOW 123 0 0 Left 0
WINDOW 39 0 0 Left 0
SYMATTR InstName V5
SYMATTR Value 0
SYMBOL voltage -80 304 R0
WINDOW 123 0 0 Left 0
WINDOW 39 0 0 Left 0
SYMATTR InstName V6
SYMATTR Value 10
SYMBOL voltage -192 304 R0
WINDOW 123 0 0 Left 0
WINDOW 39 0 0 Left 0
SYMATTR InstName V7
SYMATTR Value 10
TEXT 464 352 Left 2 !.tran 8
