Version 4
SHEET 1 880 680
WIRE 240 -16 240 -32
WIRE 128 48 80 48
WIRE 560 64 528 64
WIRE 352 80 336 80
WIRE 752 96 736 96
WIRE 128 112 80 112
WIRE 560 128 528 128
WIRE 240 192 240 176
FLAG 240 -32 Vpos
IOPIN 240 -32 In
FLAG 624 0 Vpos
IOPIN 624 0 In
FLAG 240 192 Vneg
IOPIN 240 192 In
FLAG 624 192 Vneg
IOPIN 624 192 In
FLAG 80 48 A
IOPIN 80 48 In
FLAG 80 112 B
IOPIN 80 112 In
FLAG 528 64 A
IOPIN 528 64 In
FLAG 528 128 B
IOPIN 528 128 In
FLAG 352 80 SUM
IOPIN 352 80 Out
FLAG 752 96 Cout
IOPIN 752 96 Out
SYMBOL XOR_SYM 240 80 R0
SYMATTR InstName X1
SYMBOL AND_SYM 640 96 R0
SYMATTR InstName X2
