Version 4
SHEET 1 880 680
WIRE 320 128 304 128
WIRE 320 192 304 192
FLAG 80 128 A
IOPIN 80 128 In
FLAG 80 192 B
IOPIN 80 192 In
FLAG 192 80 Vdd
IOPIN 192 80 In
FLAG 192 240 0
FLAG 320 128 SUM
IOPIN 320 128 Out
FLAG 320 192 C
IOPIN 320 192 Out
FLAG -192 176 A
IOPIN -192 176 In
FLAG -16 176 B
IOPIN -16 176 In
FLAG -144 16 Vdd
IOPIN -144 16 In
FLAG -16 256 0
FLAG -144 96 0
FLAG -192 256 0
SYMBOL HA_SYM 192 160 R0
SYMATTR InstName X1
SYMBOL voltage -144 0 R0
WINDOW 123 0 0 Left 0
WINDOW 39 0 0 Left 0
SYMATTR InstName V1
SYMATTR Value 5
SYMBOL voltage -192 160 R0
WINDOW 3 -47 123 VLeft 2
WINDOW 123 0 0 Left 0
WINDOW 39 0 0 Left 0
SYMATTR InstName V2
SYMATTR Value PULSE(0 5 2 0.001 0.001 2 4)
SYMBOL voltage -16 160 R0
WINDOW 3 -48 129 VLeft 2
WINDOW 123 0 0 Left 0
WINDOW 39 0 0 Left 0
SYMATTR InstName V3
SYMATTR Value PULSE(0 5 1 0.001 0.001 1 2)
TEXT 288 274 Left 2 !.tran 4
