Version 4
SHEET 1 880 680
WIRE -128 0 -160 0
WIRE 272 0 128 0
WIRE 128 32 128 0
WIRE 128 32 48 32
WIRE -128 64 -160 64
FLAG 96 80 A0
IOPIN 96 80 In
FLAG 96 128 A1
IOPIN 96 128 In
FLAG 96 176 A2
IOPIN 96 176 In
FLAG 96 240 B0
IOPIN 96 240 In
FLAG 96 288 B1
IOPIN 96 288 In
FLAG 96 336 B2
IOPIN 96 336 In
FLAG -160 0 Vpos
IOPIN -160 0 In
FLAG -160 64 EN
IOPIN -160 64 In
FLAG 272 416 Vneg
IOPIN 272 416 In
FLAG -64 -64 Vpos
IOPIN -64 -64 In
FLAG -64 128 Vneg
IOPIN -64 128 In
FLAG 448 80 Z0
IOPIN 448 80 Out
FLAG 448 128 Z1
IOPIN 448 128 Out
FLAG 448 176 Z2
IOPIN 448 176 Out
FLAG 448 224 Z3
IOPIN 448 224 Out
FLAG 448 272 Z4
IOPIN 448 272 Out
FLAG 448 320 Z5
IOPIN 448 320 Out
SYMBOL MULTIPLIER_SYM 272 208 R0
SYMATTR InstName X1
SYMBOL AND_SYM -48 32 R0
SYMATTR InstName X2
