Version 4
SHEET 1 880 680
FLAG -128 48 A0
IOPIN -128 48 In
FLAG -128 96 A1
IOPIN -128 96 In
FLAG -128 144 A2
IOPIN -128 144 In
FLAG -128 208 B0
IOPIN -128 208 In
FLAG -128 256 B1
IOPIN -128 256 In
FLAG -128 304 B2
IOPIN -128 304 In
FLAG 48 -32 Vdd
IOPIN 48 -32 In
FLAG 48 384 0
FLAG -400 224 0
FLAG -560 224 0
FLAG -560 384 0
FLAG -400 384 0
FLAG -256 384 0
FLAG -384 64 0
FLAG -256 224 0
FLAG -384 -16 Vdd
IOPIN -384 -16 In
FLAG -256 144 A0
IOPIN -256 144 In
FLAG -400 144 A1
IOPIN -400 144 In
FLAG -400 304 B1
IOPIN -400 304 In
FLAG -560 304 B2
IOPIN -560 304 In
FLAG -256 304 B0
IOPIN -256 304 In
FLAG -560 144 A2
IOPIN -560 144 In
FLAG 224 48 Z0
IOPIN 224 48 Out
FLAG 224 96 Z1
IOPIN 224 96 Out
FLAG 224 144 Z2
IOPIN 224 144 Out
FLAG 224 192 Z3
IOPIN 224 192 Out
FLAG 224 240 Z4
IOPIN 224 240 Out
FLAG 224 288 Z5
IOPIN 224 288 Out
SYMBOL MULTIPLIER_SYM 48 176 R0
SYMATTR InstName X1
SYMBOL voltage -384 -32 R0
WINDOW 123 0 0 Left 0
WINDOW 39 0 0 Left 0
SYMATTR InstName V1
SYMATTR Value 10
SYMBOL voltage -560 128 R0
WINDOW 123 0 0 Left 0
WINDOW 39 0 0 Left 0
SYMATTR InstName V2
SYMATTR Value 10
SYMBOL voltage -400 128 R0
WINDOW 123 0 0 Left 0
WINDOW 39 0 0 Left 0
SYMATTR InstName V3
SYMATTR Value 10
SYMBOL voltage -256 128 R0
WINDOW 123 0 0 Left 0
WINDOW 39 0 0 Left 0
SYMATTR InstName V4
SYMATTR Value 0
SYMBOL voltage -560 288 R0
WINDOW 123 0 0 Left 0
WINDOW 39 0 0 Left 0
SYMATTR InstName V5
SYMATTR Value 0
SYMBOL voltage -400 288 R0
WINDOW 123 0 0 Left 0
WINDOW 39 0 0 Left 0
SYMATTR InstName V6
SYMATTR Value 10
SYMBOL voltage -256 288 R0
WINDOW 123 0 0 Left 0
WINDOW 39 0 0 Left 0
SYMATTR InstName V7
SYMATTR Value 10
TEXT 152 360 Left 2 !.tran 8
