Version 4
SHEET 1 880 680
FLAG 192 48 A0
IOPIN 192 48 In
FLAG 192 80 A1
IOPIN 192 80 In
FLAG 192 112 A2
IOPIN 192 112 In
FLAG 192 160 B0
IOPIN 192 160 In
FLAG 192 192 B1
IOPIN 192 192 In
FLAG 192 224 B2
IOPIN 192 224 In
FLAG 192 272 EN
IOPIN 192 272 In
FLAG 352 -32 Vdd
IOPIN 352 -32 In
FLAG 512 80 Z0
IOPIN 512 80 Out
FLAG 512 112 Z1
IOPIN 512 112 Out
FLAG 512 144 Z2
IOPIN 512 144 Out
FLAG 512 176 Z3
IOPIN 512 176 Out
FLAG 512 208 Z4
IOPIN 512 208 Out
FLAG 512 240 Z5
IOPIN 512 240 Out
FLAG 352 352 0
FLAG -176 32 0
FLAG -32 32 0
FLAG -16 192 0
FLAG -176 192 0
FLAG -352 192 0
FLAG -352 384 0
FLAG -176 384 0
FLAG -16 384 0
FLAG -176 -48 Vdd
IOPIN -176 -48 In
FLAG -32 -48 EN
IOPIN -32 -48 In
FLAG -352 112 A2
IOPIN -352 112 In
FLAG -176 112 A1
IOPIN -176 112 In
FLAG -16 112 A0
IOPIN -16 112 In
FLAG -352 304 B2
IOPIN -352 304 In
FLAG -176 304 B1
IOPIN -176 304 In
FLAG -16 304 B0
IOPIN -16 304 In
SYMBOL MULTIPLIER_EN_SYM 352 112 R0
SYMATTR InstName X1
SYMBOL voltage -176 -64 R0
WINDOW 123 0 0 Left 0
WINDOW 39 0 0 Left 0
SYMATTR InstName V1
SYMATTR Value 10
SYMBOL voltage -352 96 R0
WINDOW 123 0 0 Left 0
WINDOW 39 0 0 Left 0
SYMATTR InstName V2
SYMATTR Value 10
SYMBOL voltage -176 96 R0
WINDOW 123 0 0 Left 0
WINDOW 39 0 0 Left 0
SYMATTR InstName V3
SYMATTR Value 10
SYMBOL voltage -16 96 R0
WINDOW 123 0 0 Left 0
WINDOW 39 0 0 Left 0
SYMATTR InstName V4
SYMATTR Value 0
SYMBOL voltage -352 288 R0
WINDOW 123 0 0 Left 0
WINDOW 39 0 0 Left 0
SYMATTR InstName V5
SYMATTR Value 0
SYMBOL voltage -176 288 R0
WINDOW 123 0 0 Left 0
WINDOW 39 0 0 Left 0
SYMATTR InstName V6
SYMATTR Value 10
SYMBOL voltage -16 288 R0
WINDOW 123 0 0 Left 0
WINDOW 39 0 0 Left 0
SYMATTR InstName V7
SYMATTR Value 10
SYMBOL voltage -32 -64 R0
WINDOW 3 -79 -54 Left 2
WINDOW 123 0 0 Left 0
SYMATTR Value PULSE(0 10 1 0.001 0.001 1 2)
SYMATTR SpiceLine Rser=0.3 Cpar=0.25
SYMATTR InstName V8
TEXT 440 344 Left 2 !.tran 2
