Version 4
SHEET 1 880 680
WIRE 272 80 272 32
WIRE 160 128 96 128
WIRE 464 160 384 160
WIRE 160 192 96 192
WIRE 160 240 96 240
WIRE 272 288 272 240
FLAG -224 112 0
FLAG -224 304 0
FLAG -80 304 0
FLAG -80 112 0
FLAG -224 32 Vdd
IOPIN -224 32 In
FLAG -80 32 B
IOPIN -80 32 In
FLAG -224 224 A
IOPIN -224 224 In
FLAG -80 224 SEL
IOPIN -80 224 In
FLAG 272 32 Vdd
IOPIN 272 32 In
FLAG 96 128 A
IOPIN 96 128 In
FLAG 96 192 B
IOPIN 96 192 In
FLAG 96 240 SEL
IOPIN 96 240 In
FLAG 272 288 0
FLAG 464 160 Y
IOPIN 464 160 Out
SYMBOL MUX2_1 272 160 R0
SYMATTR InstName X1
SYMBOL voltage -224 16 R0
WINDOW 123 0 0 Left 0
WINDOW 39 0 0 Left 0
SYMATTR InstName V1
SYMATTR Value 2
SYMBOL voltage -224 208 R0
WINDOW 3 -216 -46 Left 2
WINDOW 123 0 0 Left 0
WINDOW 39 0 0 Left 0
SYMATTR Value PULSE(0 2 1 0.001 0.001 1 2)
SYMATTR InstName V2
SYMBOL voltage -80 208 R0
WINDOW 3 -49 129 Left 2
WINDOW 123 0 0 Left 0
WINDOW 39 0 0 Left 0
SYMATTR Value PULSE(0 2 4 0.001 0.001 4 8)
SYMATTR InstName V3
SYMBOL voltage -80 16 R0
WINDOW 3 -64 -47 Left 2
WINDOW 123 0 0 Left 0
WINDOW 39 0 0 Left 0
SYMATTR Value PULSE(0 2 2 0.001 0.001 2 4)
SYMATTR InstName V4
TEXT 416 336 Left 2 !.tran 8
