Version 4
SHEET 1 880 1012
WIRE -256 -128 -256 -160
WIRE 256 -128 -256 -128
WIRE 64 -64 0 -64
WIRE 64 -32 0 -32
WIRE 64 0 0 0
WIRE 480 16 448 16
WIRE 64 32 0 32
WIRE 64 64 0 64
WIRE 64 96 0 96
WIRE 256 160 -192 160
WIRE -256 240 -256 -128
WIRE 256 240 -256 240
WIRE 64 304 0 304
WIRE 64 336 0 336
WIRE 64 368 0 368
WIRE 480 384 448 384
WIRE 64 400 0 400
WIRE 64 432 0 432
WIRE 64 464 0 464
WIRE -192 528 -192 160
WIRE 256 528 -192 528
WIRE -256 576 -256 240
WIRE 256 576 -256 576
WIRE 64 640 0 640
WIRE 64 672 0 672
WIRE 64 704 0 704
WIRE 480 720 448 720
WIRE 64 736 0 736
WIRE 64 768 0 768
WIRE 64 800 0 800
WIRE -192 864 -192 528
WIRE 256 864 -192 864
WIRE -192 896 -192 864
FLAG 0 -64 In00
IOPIN 0 -64 In
FLAG 0 -32 In10
IOPIN 0 -32 In
FLAG 0 0 In20
IOPIN 0 0 In
FLAG 0 32 In30
IOPIN 0 32 In
FLAG 0 64 SEL1
IOPIN 0 64 In
FLAG 0 96 SEL0
IOPIN 0 96 In
FLAG 0 304 In01
IOPIN 0 304 In
FLAG 0 336 In11
IOPIN 0 336 In
FLAG 0 368 In21
IOPIN 0 368 In
FLAG 0 400 In31
IOPIN 0 400 In
FLAG 0 432 SEL1
IOPIN 0 432 In
FLAG 0 464 SEL0
IOPIN 0 464 In
FLAG 0 640 In02
IOPIN 0 640 In
FLAG 0 672 In12
IOPIN 0 672 In
FLAG 0 704 In22
IOPIN 0 704 In
FLAG 0 736 In32
IOPIN 0 736 In
FLAG 0 768 SEL1
IOPIN 0 768 In
FLAG 0 800 SEL0
IOPIN 0 800 In
FLAG -256 -160 Vpos
IOPIN -256 -160 In
FLAG 480 16 Z0
IOPIN 480 16 Out
FLAG 480 384 Z1
IOPIN 480 384 Out
FLAG 480 720 Z2
IOPIN 480 720 Out
FLAG -192 896 Vneg
IOPIN -192 896 In
SYMBOL MUX4_1_SYM 256 16 R0
SYMATTR InstName X1
SYMBOL MUX4_1_SYM 256 384 R0
SYMATTR InstName X2
SYMBOL MUX4_1_SYM 256 720 R0
SYMATTR InstName X3
