Version 4
SHEET 1 1112 824
WIRE 656 64 592 64
WIRE 656 96 592 96
WIRE 656 128 592 128
WIRE 656 176 592 176
WIRE 656 208 592 208
WIRE 1024 208 992 208
WIRE 656 240 592 240
WIRE 1024 256 992 256
WIRE 656 288 592 288
WIRE 1024 304 992 304
WIRE 656 320 592 320
WIRE 656 352 592 352
WIRE 656 400 592 400
WIRE 656 432 592 432
WIRE 656 464 592 464
FLAG -432 -48 0
FLAG -208 -48 0
FLAG 16 -48 0
FLAG -16 160 0
FLAG -192 160 0
FLAG -368 160 0
FLAG -16 352 0
FLAG -192 352 0
FLAG -368 352 0
FLAG -16 576 0
FLAG -192 544 0
FLAG -368 544 0
FLAG -16 768 0
FLAG -192 768 0
FLAG -368 768 0
FLAG -432 -128 Vdd
IOPIN -432 -128 In
FLAG -208 -128 SEL1
IOPIN -208 -128 In
FLAG 16 -128 SEL0
IOPIN 16 -128 In
FLAG -16 80 In00
IOPIN -16 80 In
FLAG -192 80 In01
IOPIN -192 80 In
FLAG -368 80 In02
IOPIN -368 80 In
FLAG -16 272 In10
IOPIN -16 272 In
FLAG -192 272 In11
IOPIN -192 272 In
FLAG -368 272 In12
IOPIN -368 272 In
FLAG -16 496 In20
IOPIN -16 496 In
FLAG -192 464 In21
IOPIN -192 464 In
FLAG -368 464 In22
IOPIN -368 464 In
FLAG -16 688 In30
IOPIN -16 688 In
FLAG -192 688 In31
IOPIN -192 688 In
FLAG -368 688 In32
IOPIN -368 688 In
FLAG 768 -16 Vdd
IOPIN 768 -16 In
FLAG 864 -16 0
FLAG 768 560 SEL1
IOPIN 768 560 In
FLAG 864 560 SEL0
IOPIN 864 560 In
FLAG 592 64 In00
IOPIN 592 64 In
FLAG 592 96 In01
IOPIN 592 96 In
FLAG 592 128 In02
IOPIN 592 128 In
FLAG 592 176 In10
IOPIN 592 176 In
FLAG 592 208 In11
IOPIN 592 208 In
FLAG 592 240 In12
IOPIN 592 240 In
FLAG 592 288 In20
IOPIN 592 288 In
FLAG 592 320 In21
IOPIN 592 320 In
FLAG 592 352 In22
IOPIN 592 352 In
FLAG 592 400 In30
IOPIN 592 400 In
FLAG 592 432 In31
IOPIN 592 432 In
FLAG 592 464 In32
IOPIN 592 464 In
FLAG 1024 208 Z0
IOPIN 1024 208 Out
FLAG 1024 256 Z1
IOPIN 1024 256 Out
FLAG 1024 304 Z2
IOPIN 1024 304 Out
SYMBOL voltage -432 -144 R0
WINDOW 123 0 0 Left 0
WINDOW 39 0 0 Left 0
SYMATTR InstName V1
SYMATTR Value 10
SYMBOL voltage -208 -144 R0
WINDOW 3 6 129 Left 2
WINDOW 123 0 0 Left 0
WINDOW 39 0 0 Left 0
SYMATTR Value PULSE(0 10 2 0.001 0.001 2 4)
SYMATTR InstName V2
SYMBOL voltage -16 64 R0
WINDOW 123 0 0 Left 0
WINDOW 39 0 0 Left 0
SYMATTR InstName V4
SYMATTR Value 10
SYMBOL voltage -192 64 R0
WINDOW 123 0 0 Left 0
WINDOW 39 0 0 Left 0
SYMATTR InstName V5
SYMATTR Value 0
SYMBOL voltage -368 64 R0
WINDOW 123 0 0 Left 0
WINDOW 39 0 0 Left 0
SYMATTR InstName V6
SYMATTR Value 0
SYMBOL voltage -16 256 R0
WINDOW 123 0 0 Left 0
WINDOW 39 0 0 Left 0
SYMATTR InstName V7
SYMATTR Value 0
SYMBOL voltage -192 256 R0
WINDOW 123 0 0 Left 0
WINDOW 39 0 0 Left 0
SYMATTR InstName V8
SYMATTR Value 10
SYMBOL voltage -368 256 R0
WINDOW 123 0 0 Left 0
WINDOW 39 0 0 Left 0
SYMATTR InstName V9
SYMATTR Value 0
SYMBOL voltage -16 480 R0
WINDOW 123 0 0 Left 0
WINDOW 39 0 0 Left 0
SYMATTR InstName V10
SYMATTR Value 0
SYMBOL voltage -192 448 R0
WINDOW 123 0 0 Left 0
WINDOW 39 0 0 Left 0
SYMATTR InstName V11
SYMATTR Value 0
SYMBOL voltage -368 448 R0
WINDOW 123 0 0 Left 0
WINDOW 39 0 0 Left 0
SYMATTR InstName V12
SYMATTR Value 10
SYMBOL voltage -16 672 R0
WINDOW 123 0 0 Left 0
WINDOW 39 0 0 Left 0
SYMATTR InstName V13
SYMATTR Value 10
SYMBOL voltage -192 672 R0
WINDOW 123 0 0 Left 0
WINDOW 39 0 0 Left 0
SYMATTR InstName V14
SYMATTR Value 0
SYMBOL voltage -368 672 R0
WINDOW 123 0 0 Left 0
WINDOW 39 0 0 Left 0
SYMATTR InstName V15
SYMATTR Value 10
SYMBOL MUX3BIT_SYM 816 176 R0
SYMATTR InstName X1
SYMBOL voltage 16 -144 R0
WINDOW 3 40 -7 Left 2
WINDOW 123 0 0 Left 0
WINDOW 39 0 0 Left 0
SYMATTR Value PULSE(0 10 1 0.001 0.001 1 2)
SYMATTR InstName V3
TEXT 200 760 Left 2 !.tran 4
