Version 4
SHEET 1 924 808
WIRE 160 224 160 192
WIRE -32 288 -80 288
WIRE -32 320 -80 320
WIRE -32 352 -80 352
WIRE 400 368 352 368
WIRE -32 384 -80 384
WIRE -32 416 -80 416
WIRE -32 448 -80 448
WIRE 160 544 160 512
FLAG -976 352 Vdd
IOPIN -976 352 In
FLAG -704 176 A
IOPIN -704 176 In
FLAG -368 128 B
IOPIN -368 128 In
FLAG -688 352 C
IOPIN -688 352 In
FLAG -688 592 D
IOPIN -688 592 In
FLAG -352 400 SEL0
IOPIN -352 400 In
FLAG -352 592 SEL1
IOPIN -352 592 In
FLAG -976 432 0
FLAG -704 256 0
FLAG -368 208 0
FLAG -688 432 0
FLAG -688 672 0
FLAG -352 480 0
FLAG -352 672 0
FLAG -80 288 A
IOPIN -80 288 In
FLAG -80 320 B
IOPIN -80 320 In
FLAG -80 352 C
IOPIN -80 352 In
FLAG -80 384 D
IOPIN -80 384 In
FLAG -80 416 SEL1
IOPIN -80 416 In
FLAG -80 448 SEL0
IOPIN -80 448 In
FLAG 160 192 Vdd
IOPIN 160 192 In
FLAG 160 544 0
FLAG 400 368 Y
IOPIN 400 368 Out
SYMBOL voltage -976 336 R0
WINDOW 123 0 0 Left 0
WINDOW 39 0 0 Left 0
SYMATTR InstName V1
SYMATTR Value 2
SYMBOL voltage -704 160 R0
WINDOW 3 -176 -44 Left 2
WINDOW 123 0 0 Left 0
WINDOW 39 0 0 Left 0
SYMATTR Value PULSE(0 2 1 0.001 0.001 1 2)
SYMATTR InstName V2
SYMBOL voltage -368 112 R0
WINDOW 3 -160 140 Left 2
WINDOW 123 0 0 Left 0
WINDOW 39 0 0 Left 0
SYMATTR Value PULSE(0 2 2 0.001 0.001 2 4)
SYMATTR InstName V3
SYMBOL voltage -688 336 R0
WINDOW 3 -182 -39 Left 2
WINDOW 123 0 0 Left 0
WINDOW 39 0 0 Left 0
SYMATTR Value PULSE(0 2 4 0.001 0.001 4 8)
SYMATTR InstName V4
SYMBOL voltage -688 576 R0
WINDOW 3 -195 139 Left 2
WINDOW 123 0 0 Left 0
WINDOW 39 0 0 Left 0
SYMATTR Value PULSE(0 2 8 0.001 0.001 8 16)
SYMATTR InstName V5
SYMBOL voltage -352 384 R0
WINDOW 3 -159 -84 Left 2
WINDOW 123 0 0 Left 0
WINDOW 39 0 0 Left 0
SYMATTR Value PULSE(0 2 16 0.001 0.001 16 32)
SYMATTR InstName V6
SYMBOL voltage -352 576 R0
WINDOW 3 -145 137 Left 2
WINDOW 123 0 0 Left 0
WINDOW 39 0 0 Left 0
SYMATTR Value PULSE(0 2 32 0.001 0.001 32 64)
SYMATTR InstName V7
SYMBOL MUX4_1_SYM 160 368 R0
SYMATTR InstName X1
TEXT 304 688 Left 2 !.tran 64
