Version 4
SHEET 1 880 680
FLAG -432 -48 SEL2
IOPIN -432 -48 In
FLAG -272 -48 SEL1
IOPIN -272 -48 In
FLAG -80 -48 SEL0
IOPIN -80 -48 In
FLAG -432 192 In1
IOPIN -432 192 In
FLAG -272 192 In2
IOPIN -272 192 In
FLAG -80 176 In3
IOPIN -80 176 In
FLAG -432 432 In5
IOPIN -432 432 In
FLAG -272 432 In6
IOPIN -272 432 In
FLAG -80 432 In7
IOPIN -80 432 In
FLAG 384 0 0
FLAG 320 0 Vdd
IOPIN 320 0 In
FLAG 416 352 SEL0
IOPIN 416 352 In
FLAG 352 352 SEL1
IOPIN 352 352 In
FLAG 288 352 SEL2
IOPIN 288 352 In
FLAG 192 64 In0
IOPIN 192 64 In
FLAG 192 96 In1
IOPIN 192 96 In
FLAG 192 128 In2
IOPIN 192 128 In
FLAG 192 160 In3
IOPIN 192 160 In
FLAG 192 192 In4
IOPIN 192 192 In
FLAG 192 224 In5
IOPIN 192 224 In
FLAG 192 256 In6
IOPIN 192 256 In
FLAG 192 288 In7
IOPIN 192 288 In
FLAG 512 176 Y
IOPIN 512 176 Out
FLAG -624 -48 Vdd
IOPIN -624 -48 In
FLAG -624 192 In0
IOPIN -624 192 In
FLAG -624 432 In4
IOPIN -624 432 In
FLAG -80 32 0
FLAG -80 256 0
FLAG -80 512 0
FLAG -272 512 0
FLAG -432 512 0
FLAG -432 272 0
FLAG -272 272 0
FLAG -272 32 0
FLAG -432 32 0
FLAG -624 32 0
FLAG -624 272 0
FLAG -624 512 0
SYMBOL MUX_8_1_SYMBOL 352 176 R0
SYMATTR InstName X1
SYMBOL voltage -272 176 R0
WINDOW 123 0 0 Left 0
WINDOW 39 0 0 Left 0
WINDOW 3 24 44 Left 2
SYMATTR Value 0
SYMATTR InstName V3
SYMBOL voltage -80 160 R0
WINDOW 123 0 0 Left 0
WINDOW 39 0 0 Left 0
WINDOW 3 24 44 Left 2
SYMATTR Value 10
SYMATTR InstName V4
SYMBOL voltage -272 416 R0
WINDOW 123 0 0 Left 0
WINDOW 39 0 0 Left 0
SYMATTR InstName V5
SYMATTR Value 10
SYMBOL voltage -80 416 R0
WINDOW 123 0 0 Left 0
WINDOW 39 0 0 Left 0
SYMATTR InstName V6
SYMATTR Value 0
SYMBOL voltage -432 -64 R0
WINDOW 3 -220 146 Left 2
WINDOW 123 0 0 Left 0
SYMATTR Value PULSE(0 10 4 0.001 0.001 4 8)
SYMATTR SpiceLine Rser=0.35 Cpar=0.25
SYMATTR InstName V7
SYMBOL voltage -432 176 R0
WINDOW 123 0 0 Left 0
WINDOW 39 0 0 Left 0
WINDOW 3 24 44 Left 2
SYMATTR Value 10
SYMATTR InstName V8
SYMBOL voltage -432 416 R0
WINDOW 123 0 0 Left 0
WINDOW 39 0 0 Left 0
SYMATTR InstName V9
SYMATTR Value 0
SYMBOL voltage -624 -64 R0
WINDOW 123 0 0 Left 0
WINDOW 39 0 0 Left 0
SYMATTR InstName V10
SYMATTR Value 10
SYMBOL voltage -624 176 R0
WINDOW 123 0 0 Left 0
WINDOW 39 0 0 Left 0
WINDOW 3 24 44 Left 2
SYMATTR Value 0
SYMATTR InstName V11
SYMBOL voltage -624 416 R0
WINDOW 123 0 0 Left 0
WINDOW 39 0 0 Left 0
SYMATTR InstName V12
SYMATTR Value 0
SYMBOL voltage -272 -64 R0
WINDOW 3 -16 140 Left 2
WINDOW 123 0 0 Left 0
SYMATTR Value PULSE(0 10 2 0.001 0.001 2 4)
SYMATTR SpiceLine Rser=0.3 Cpar=0.25
SYMATTR InstName V1
SYMBOL voltage -80 -64 R0
WINDOW 3 -102 -82 Left 2
WINDOW 123 0 0 Left 0
SYMATTR Value PULSE(0 10 1 0.001 0.001 1 2)
SYMATTR SpiceLine Rser=0.3 Cpar=0.2
SYMATTR InstName V2
TEXT 368 480 Left 2 !.tran 8
