Version 4
SHEET 1 880 680
WIRE 208 64 208 16
WIRE 112 128 32 128
WIRE 384 160 304 160
WIRE 112 192 32 192
WIRE 208 304 208 256
FLAG 32 128 A
IOPIN 32 128 In
FLAG 32 192 B
IOPIN 32 192 In
FLAG 208 16 Vdd
IOPIN 208 16 In
FLAG -256 128 Vdd
IOPIN -256 128 In
FLAG -128 16 A
IOPIN -128 16 In
FLAG -128 208 B
IOPIN -128 208 In
FLAG -128 96 0
FLAG -256 208 0
FLAG -128 288 0
FLAG 208 304 0
FLAG 384 160 Y
IOPIN 384 160 Out
SYMBOL OR_SYM 224 160 R0
SYMATTR InstName X1
SYMBOL voltage -128 0 R0
WINDOW 3 -122 -40 Left 2
WINDOW 123 0 0 Left 0
WINDOW 39 0 0 Left 0
SYMATTR InstName V1
SYMATTR Value PULSE(0 2 2 0.001 0.001 2 4)
SYMBOL voltage -128 192 R0
WINDOW 3 -122 126 Left 2
WINDOW 123 0 0 Left 0
WINDOW 39 0 0 Left 0
SYMATTR InstName V2
SYMATTR Value PULSE(0 2 1 0.001 0.001 1 2)
SYMBOL voltage -256 112 R0
WINDOW 123 0 0 Left 0
WINDOW 39 0 0 Left 0
SYMATTR InstName V3
SYMATTR Value 2
TEXT 272 288 Left 2 !.tran 4
