Version 4
SHEET 1 1832 1036
WIRE -1408 -448 -1472 -448
WIRE -832 -448 -1408 -448
WIRE -624 -448 -832 -448
WIRE -64 -448 -624 -448
WIRE 128 -448 -64 -448
WIRE 672 -448 128 -448
WIRE 960 -448 672 -448
WIRE 1296 -448 960 -448
WIRE -832 -192 -832 -448
WIRE 1616 -192 1392 -192
WIRE -256 -160 -320 -160
WIRE -224 -160 -256 -160
WIRE 496 -160 432 -160
WIRE 512 -160 496 -160
WIRE -896 -128 -1248 -128
WIRE -304 -128 -320 -128
WIRE -224 -128 -304 -128
WIRE 448 -128 432 -128
WIRE 512 -128 448 -128
WIRE 1296 -128 1296 -448
WIRE 1392 -128 1392 -192
WIRE -224 -96 -720 -96
WIRE 512 -96 352 -96
WIRE -896 -64 -1216 -64
WIRE 1184 -48 1152 -48
WIRE -256 -32 -256 -160
WIRE -224 -32 -256 -32
WIRE 496 -32 496 -160
WIRE 512 -32 496 -32
WIRE 528 -32 512 -32
WIRE 1184 -16 1152 -16
WIRE -512 0 -832 0
WIRE -304 0 -304 -128
WIRE -224 0 -304 0
WIRE 448 0 448 -128
WIRE 512 0 448 0
WIRE 528 0 512 0
WIRE 1184 16 1152 16
WIRE 1184 64 1152 64
WIRE 64 80 -64 80
WIRE -1408 96 -1408 -448
WIRE 1184 96 1152 96
WIRE 1536 96 1520 96
WIRE 1184 128 1152 128
WIRE -624 144 -624 -448
WIRE -624 144 -816 144
WIRE 64 144 64 80
WIRE 672 144 672 80
WIRE 672 144 64 144
WIRE 1536 144 1520 144
WIRE 1184 176 1152 176
WIRE -1248 192 -1248 -128
WIRE -1152 192 -1248 192
WIRE 1536 192 1520 192
WIRE -880 208 -960 208
WIRE 352 208 352 -96
WIRE 352 208 -32 208
WIRE 1184 208 1152 208
WIRE -1184 240 -1248 240
WIRE -960 240 -960 208
WIRE -960 240 -1184 240
WIRE -32 240 -32 208
WIRE -32 240 -704 240
WIRE 1184 240 1152 240
WIRE -880 272 -944 272
WIRE 1184 288 1152 288
WIRE 960 320 960 -448
WIRE 960 320 672 320
WIRE 1184 320 1152 320
WIRE -816 336 -1408 336
WIRE -512 336 -512 0
WIRE -512 336 -816 336
WIRE 128 352 128 -448
WIRE 128 352 -64 352
WIRE 1184 352 1152 352
WIRE -816 480 -1408 480
WIRE -624 480 -624 144
WIRE -624 480 -816 480
WIRE -1408 528 -1408 480
WIRE -1152 544 -1152 192
WIRE -880 544 -1152 544
WIRE -544 576 -704 576
WIRE 480 608 432 608
WIRE 512 608 480 608
WIRE -1216 624 -1216 -64
WIRE -1216 624 -1248 624
WIRE -944 624 -944 272
WIRE -944 624 -1216 624
WIRE -256 640 -320 640
WIRE -224 640 -256 640
WIRE 512 640 432 640
WIRE -880 672 -880 608
WIRE -880 672 -1248 672
WIRE -512 672 -512 336
WIRE -512 672 -816 672
WIRE -304 672 -320 672
WIRE -224 672 -304 672
WIRE 512 672 352 672
WIRE -544 704 -544 576
WIRE -224 704 -544 704
WIRE 480 736 480 608
WIRE 512 736 480 736
WIRE -624 768 -624 480
WIRE -624 768 -800 768
WIRE -256 768 -256 640
WIRE -224 768 -256 768
WIRE 432 768 432 640
WIRE 512 768 432 768
WIRE -304 800 -304 672
WIRE -224 800 -304 800
WIRE -800 816 -800 768
WIRE 352 832 352 672
WIRE 352 832 -688 832
WIRE -880 880 -880 672
WIRE -864 880 -880 880
WIRE 64 880 64 144
WIRE 64 880 -64 880
WIRE -688 912 -688 832
WIRE -64 928 -64 880
WIRE 672 928 672 848
WIRE 672 928 -64 928
WIRE 1616 928 1616 -192
WIRE 1616 928 672 928
WIRE -1184 944 -1184 240
WIRE -864 944 -1184 944
WIRE -64 960 -64 928
WIRE -64 960 -144 960
WIRE -1408 1008 -1408 768
WIRE -800 1008 -1408 1008
WIRE -512 1008 -512 672
WIRE -512 1008 -800 1008
WIRE -64 1008 -64 960
WIRE -64 1008 -512 1008
FLAG -224 -368 A0
IOPIN -224 -368 In
FLAG -224 -336 A1
IOPIN -224 -336 In
FLAG -224 -304 A2
IOPIN -224 -304 In
FLAG -224 -272 B0
IOPIN -224 -272 In
FLAG -224 -240 B1
IOPIN -224 -240 In
FLAG -224 -208 B2
IOPIN -224 -208 In
FLAG -1568 176 DCin
IOPIN -1568 176 In
FLAG -1568 608 DRin
IOPIN -1568 608 In
FLAG 1296 448 SEL1
IOPIN 1296 448 In
FLAG 1392 448 SEL0
IOPIN 1392 448 In
FLAG -320 -160 OPSEL0
IOPIN -320 -160 In
FLAG -320 -128 OPSEL1
IOPIN -320 -128 In
FLAG -1568 256 EN
IOPIN -1568 256 In
FLAG -1568 688 EN
IOPIN -1568 688 In
FLAG -224 432 A0
IOPIN -224 432 In
FLAG -224 464 A1
IOPIN -224 464 In
FLAG -224 496 A2
IOPIN -224 496 In
FLAG -224 528 B0
IOPIN -224 528 In
FLAG -224 560 B1
IOPIN -224 560 In
FLAG -224 592 B2
IOPIN -224 592 In
FLAG 1536 96 Z0
IOPIN 1536 96 Out
FLAG 1536 144 Z1
IOPIN 1536 144 Out
FLAG 1536 192 Z2
IOPIN 1536 192 Out
FLAG -1472 -448 Vpos
IOPIN -1472 -448 In
FLAG 512 -368 A0
IOPIN 512 -368 In
FLAG 512 -336 A1
IOPIN 512 -336 In
FLAG 512 -304 A2
IOPIN 512 -304 In
FLAG 512 -272 B0
IOPIN 512 -272 In
FLAG 512 -240 B1
IOPIN 512 -240 In
FLAG 512 -208 B2
IOPIN 512 -208 In
FLAG 512 400 A0
IOPIN 512 400 In
FLAG 512 432 A1
IOPIN 512 432 In
FLAG 512 464 A2
IOPIN 512 464 In
FLAG 512 496 B0
IOPIN 512 496 In
FLAG 512 528 B1
IOPIN 512 528 In
FLAG 512 560 B2
IOPIN 512 560 In
FLAG 96 -256 Z000
IOPIN 96 -256 Out
FLAG 96 -176 Z001
IOPIN 96 -176 Out
FLAG 96 -96 Z002
IOPIN 96 -96 Out
FLAG 96 544 Z100
IOPIN 96 544 Out
FLAG 96 624 Z101
IOPIN 96 624 Out
FLAG 96 704 Z102
IOPIN 96 704 Out
FLAG 832 512 Z110
IOPIN 832 512 Out
FLAG 832 592 Z111
IOPIN 832 592 Out
FLAG 832 672 Z112
IOPIN 832 672 Out
FLAG 832 -256 Z010
IOPIN 832 -256 Out
FLAG 832 -176 Z011
IOPIN 832 -176 Out
FLAG 832 -96 Z012
IOPIN 832 -96 Out
FLAG 1152 -48 Z000
IOPIN 1152 -48 In
FLAG 1152 64 Z010
IOPIN 1152 64 In
FLAG 1152 176 Z100
IOPIN 1152 176 In
FLAG 1152 288 Z110
IOPIN 1152 288 In
FLAG 1152 -16 Z001
IOPIN 1152 -16 In
FLAG 1152 96 Z011
IOPIN 1152 96 In
FLAG 1152 208 Z101
IOPIN 1152 208 In
FLAG 1152 320 Z111
IOPIN 1152 320 In
FLAG 1152 16 Z002
IOPIN 1152 16 In
FLAG 1152 128 Z012
IOPIN 1152 128 In
FLAG 1152 240 Z102
IOPIN 1152 240 In
FLAG 1152 352 Z112
IOPIN 1152 352 In
FLAG -144 960 Vneg
IOPIN -144 960 In
FLAG 512 848 Cin
IOPIN 512 848 In
FLAG -224 880 Cin
IOPIN -224 880 In
FLAG 512 80 Cin
IOPIN 512 80 In
FLAG -224 80 Cin
IOPIN -224 80 In
FLAG 432 -160 OPSEL0
IOPIN 432 -160 In
FLAG 432 -128 OPSEL1
IOPIN 432 -128 In
FLAG -320 640 OPSEL0
IOPIN -320 640 In
FLAG -320 672 OPSEL1
IOPIN -320 672 In
FLAG 432 608 OPSEL0
IOPIN 432 608 In
FLAG 432 640 OPSEL1
IOPIN 432 640 In
SYMBOL part_2_b_sym -64 -176 R0
SYMATTR InstName X1
SYMBOL part_2_b_sym 672 -176 R0
SYMATTR InstName X2
SYMBOL part_2_b_sym -64 624 R0
SYMATTR InstName X3
SYMBOL part_2_b_sym 672 592 R0
SYMATTR InstName X4
SYMBOL DECODER_1_2_SYM -1408 640 R0
SYMATTR InstName X8
SYMBOL DECODER_1_2_SYM -1408 208 R0
SYMATTR InstName X9
SYMBOL AND_SYM -816 -96 R0
SYMATTR InstName X10
SYMBOL AND_SYM -800 240 R0
SYMATTR InstName X11
SYMBOL AND_SYM -800 576 R0
SYMATTR InstName X12
SYMBOL AND_SYM -784 912 R0
SYMATTR InstName X13
SYMBOL MUX3BIT_SYM 1344 64 R0
SYMATTR InstName X5
