Version 4
SHEET 1 880 680
WIRE -192 16 -240 16
WIRE -16 16 -48 16
FLAG 288 -48 A0
IOPIN 288 -48 In
FLAG 288 -16 A1
IOPIN 288 -16 In
FLAG 288 16 A2
IOPIN 288 16 In
FLAG 288 48 B0
IOPIN 288 48 In
FLAG 288 80 B1
IOPIN 288 80 In
FLAG 288 112 B2
IOPIN 288 112 In
FLAG 288 160 Din0
IOPIN 288 160 In
FLAG 288 192 Din1
IOPIN 288 192 In
FLAG 288 224 EN
IOPIN 288 224 In
FLAG 288 288 SEL1
IOPIN 288 288 In
FLAG 288 320 SEL0
IOPIN 288 320 In
FLAG 448 -128 Vdd
IOPIN 448 -128 In
FLAG 448 400 0
FLAG -288 -48 0
FLAG -176 -48 0
FLAG -64 -48 0
FLAG 48 -48 0
FLAG -192 96 0
FLAG -16 96 0
FLAG -272 256 0
FLAG -128 256 0
FLAG 16 256 0
FLAG 16 432 0
FLAG -128 432 0
FLAG -272 432 0
FLAG -288 -128 Vdd
IOPIN -288 -128 In
FLAG 16 176 A0
IOPIN 16 176 In
FLAG -128 176 A1
IOPIN -128 176 In
FLAG -272 176 A2
IOPIN -272 176 In
FLAG 16 352 B0
IOPIN 16 352 In
FLAG -128 352 B1
IOPIN -128 352 In
FLAG -272 352 B2
IOPIN -272 352 In
FLAG -176 -128 Din0
IOPIN -176 -128 In
FLAG -64 -128 Din1
IOPIN -64 -128 In
FLAG 48 -128 EN
IOPIN 48 -128 In
FLAG -240 16 SEL1
IOPIN -240 16 In
FLAG -48 16 SEL0
IOPIN -48 16 In
FLAG 608 64 Z0
IOPIN 608 64 Out
FLAG 608 144 Z1
IOPIN 608 144 Out
FLAG 608 224 Z2
IOPIN 608 224 Out
FLAG 288 400 0
SYMBOL PART_2_B_SYM 448 144 R0
SYMATTR InstName X1
SYMBOL voltage -288 -144 R0
WINDOW 123 0 0 Left 0
WINDOW 39 0 0 Left 0
SYMATTR InstName V1
SYMATTR Value 10
SYMBOL voltage -176 -144 R0
WINDOW 123 0 0 Left 0
WINDOW 39 0 0 Left 0
SYMATTR InstName V2
SYMATTR Value 10
SYMBOL voltage -64 -144 R0
WINDOW 123 0 0 Left 0
WINDOW 39 0 0 Left 0
SYMATTR InstName V3
SYMATTR Value 0
SYMBOL voltage 48 -144 R0
WINDOW 123 0 0 Left 0
WINDOW 39 0 0 Left 0
SYMATTR InstName V4
SYMATTR Value 10
SYMBOL voltage -192 0 R0
WINDOW 123 0 0 Left 0
WINDOW 39 0 0 Left 0
SYMATTR InstName V5
SYMATTR Value 10
SYMBOL voltage -16 0 R0
WINDOW 123 0 0 Left 0
WINDOW 39 0 0 Left 0
SYMATTR InstName V6
SYMATTR Value 0
SYMBOL voltage -272 160 R0
WINDOW 123 0 0 Left 0
WINDOW 39 0 0 Left 0
SYMATTR InstName V7
SYMATTR Value 10
SYMBOL voltage -128 160 R0
WINDOW 123 0 0 Left 0
WINDOW 39 0 0 Left 0
SYMATTR InstName V8
SYMATTR Value 10
SYMBOL voltage 16 160 R0
WINDOW 123 0 0 Left 0
WINDOW 39 0 0 Left 0
SYMATTR InstName V9
SYMATTR Value 0
SYMBOL voltage -272 336 R0
WINDOW 123 0 0 Left 0
WINDOW 39 0 0 Left 0
SYMATTR InstName V10
SYMATTR Value 10
SYMBOL voltage -128 336 R0
WINDOW 123 0 0 Left 0
WINDOW 39 0 0 Left 0
SYMATTR InstName V11
SYMATTR Value 10
SYMBOL voltage 16 336 R0
WINDOW 123 0 0 Left 0
WINDOW 39 0 0 Left 0
SYMATTR InstName V12
SYMATTR Value 0
TEXT 552 376 Left 2 !.tran 8
