Version 4
SHEET 1 5000 1080
FLAG 3232 -208 A0
IOPIN 3232 -208 In
FLAG 3232 -176 A1
IOPIN 3232 -176 In
FLAG 3232 -144 A2
IOPIN 3232 -144 In
FLAG 3232 -112 B0
IOPIN 3232 -112 In
FLAG 3232 -80 B1
IOPIN 3232 -80 In
FLAG 3232 -48 B2
IOPIN 3232 -48 In
FLAG 3424 -320 SEL0
IOPIN 3424 -320 In
FLAG 3232 96 DRin
IOPIN 3232 96 In
FLAG 3712 -176 Z0
IOPIN 3712 -176 Out
FLAG 3712 -96 Z1
IOPIN 3712 -96 Out
FLAG 3712 -16 Z2
IOPIN 3712 -16 Out
FLAG 2448 112 Vdd
IOPIN 2448 112 In
FLAG 2560 -320 DCin
IOPIN 2560 -320 In
FLAG 2448 -320 DRin
IOPIN 2448 -320 In
FLAG 2560 112 EN
IOPIN 2560 112 In
FLAG 2752 -336 A2
IOPIN 2752 -336 In
FLAG 2896 -336 A1
IOPIN 2896 -336 In
FLAG 3024 -336 A0
IOPIN 3024 -336 In
FLAG 2752 -160 B2
IOPIN 2752 -160 In
FLAG 2896 -160 B1
IOPIN 2896 -160 In
FLAG 3024 -160 B0
IOPIN 3024 -160 In
FLAG 2448 192 0
FLAG 2560 192 0
FLAG 2560 -240 0
FLAG 2448 -240 0
FLAG 3024 -256 0
FLAG 2896 -256 0
FLAG 2752 -256 0
FLAG 2752 -80 0
FLAG 2896 -80 0
FLAG 3024 -80 0
FLAG 2560 -96 SEL0
IOPIN 2560 -96 In
FLAG 2464 -96 SEL1
IOPIN 2464 -96 In
FLAG 2912 96 OPSEL0
IOPIN 2912 96 In
FLAG 3008 96 OPSEL1
IOPIN 3008 96 In
FLAG 2912 176 0
FLAG 3008 176 0
FLAG 2464 -16 0
FLAG 2560 -16 0
FLAG 3552 144 0
FLAG 3568 -320 Vdd
IOPIN 3568 -320 In
FLAG 3520 -320 EN
IOPIN 3520 -320 In
FLAG 3472 -320 DCin
IOPIN 3472 -320 In
FLAG 3376 -320 SEL1
IOPIN 3376 -320 In
FLAG 3232 144 Cin
IOPIN 3232 144 In
FLAG 2784 96 Cin
IOPIN 2784 96 In
FLAG 2784 176 0
FLAG 3232 32 OPSEL1
IOPIN 3232 32 In
FLAG 3232 0 OPSEL0
IOPIN 3232 0 In
SYMBOL voltage 2448 96 R0
WINDOW 123 0 0 Left 0
WINDOW 39 0 0 Left 0
SYMATTR InstName V21
SYMATTR Value 10
SYMBOL voltage 2560 96 R0
WINDOW 123 0 0 Left 0
WINDOW 39 0 0 Left 0
SYMATTR InstName V22
SYMATTR Value 10
SYMBOL voltage 2560 -336 R0
WINDOW 123 0 0 Left 0
WINDOW 39 0 0 Left 0
SYMATTR InstName V23
SYMATTR Value 10
SYMBOL voltage 2448 -336 R0
WINDOW 123 0 0 Left 0
WINDOW 39 0 0 Left 0
SYMATTR InstName V24
SYMATTR Value 10
SYMBOL voltage 2752 -176 R0
WINDOW 123 0 0 Left 0
WINDOW 39 0 0 Left 0
SYMATTR InstName V25
SYMATTR Value 10
SYMBOL voltage 2896 -176 R0
WINDOW 123 0 0 Left 0
WINDOW 39 0 0 Left 0
SYMATTR InstName V26
SYMATTR Value 10
SYMBOL voltage 3024 -176 R0
WINDOW 123 0 0 Left 0
WINDOW 39 0 0 Left 0
SYMATTR InstName V27
SYMATTR Value 0
SYMBOL voltage 2752 -352 R0
WINDOW 123 0 0 Left 0
WINDOW 39 0 0 Left 0
SYMATTR InstName V28
SYMATTR Value 10
SYMBOL voltage 2896 -352 R0
WINDOW 123 0 0 Left 0
WINDOW 39 0 0 Left 0
SYMATTR InstName V29
SYMATTR Value 10
SYMBOL voltage 3024 -352 R0
WINDOW 123 0 0 Left 0
WINDOW 39 0 0 Left 0
SYMATTR InstName V30
SYMATTR Value 0
SYMBOL voltage 2912 80 R0
WINDOW 123 0 0 Left 0
WINDOW 39 0 0 Left 0
SYMATTR InstName V31
SYMATTR Value 10
SYMBOL voltage 3008 80 R0
WINDOW 123 0 0 Left 0
WINDOW 39 0 0 Left 0
SYMATTR InstName V32
SYMATTR Value 0
SYMBOL voltage 2560 -112 R0
WINDOW 123 0 0 Left 0
WINDOW 39 0 0 Left 0
SYMATTR InstName V39
SYMATTR Value 10
SYMBOL voltage 2464 -112 R0
WINDOW 123 0 0 Left 0
WINDOW 39 0 0 Left 0
SYMATTR InstName V40
SYMATTR Value 10
SYMBOL PART_2_A_SYM 3472 -48 R0
SYMATTR InstName X1
SYMBOL voltage 2784 80 R0
WINDOW 123 0 0 Left 0
WINDOW 39 0 0 Left 0
WINDOW 3 36 81 Left 2
SYMATTR Value 0
SYMATTR InstName V1
TEXT 3624 96 Left 2 !.tran 4
