Version 4
SHEET 1 880 680
FLAG -272 -496 0
FLAG -144 -496 0
FLAG 16 -496 0
FLAG 144 -496 0
FLAG -208 -352 0
FLAG -64 -352 0
FLAG 80 -352 0
FLAG -208 -192 0
FLAG -64 -192 0
FLAG 80 -192 0
FLAG 432 -592 Vdd
IOPIN 432 -592 In
FLAG 272 -512 A0
IOPIN 272 -512 In
FLAG 272 -480 A1
IOPIN 272 -480 In
FLAG 272 -448 A2
IOPIN 272 -448 In
FLAG 272 -416 B0
IOPIN 272 -416 In
FLAG 272 -384 B1
IOPIN 272 -384 In
FLAG 272 -352 B2
IOPIN 272 -352 In
FLAG 272 -320 Cin
IOPIN 272 -320 In
FLAG 368 -240 SEL1
IOPIN 368 -240 In
FLAG 432 -240 SEL0
IOPIN 432 -240 In
FLAG 496 -240 0
FLAG 592 -448 Z0
IOPIN 592 -448 Out
FLAG 592 -416 Z1
IOPIN 592 -416 Out
FLAG 592 -384 Z2
IOPIN 592 -384 Out
FLAG -272 -576 Vdd
IOPIN -272 -576 In
FLAG 80 -432 A0
IOPIN 80 -432 In
FLAG -64 -432 A1
IOPIN -64 -432 In
FLAG -208 -432 A2
IOPIN -208 -432 In
FLAG 80 -272 B0
IOPIN 80 -272 In
FLAG -64 -272 B1
IOPIN -64 -272 In
FLAG -208 -272 B2
IOPIN -208 -272 In
FLAG -144 -576 Cin
IOPIN -144 -576 In
FLAG 16 -576 SEL1
IOPIN 16 -576 In
FLAG 144 -576 SEL0
IOPIN 144 -576 In
SYMBOL PART_1_SYM 416 -384 R0
SYMATTR InstName X1
SYMBOL voltage -272 -592 R0
WINDOW 123 0 0 Left 0
WINDOW 39 0 0 Left 0
SYMATTR InstName V1
SYMATTR Value 10
SYMBOL voltage -144 -592 R0
WINDOW 123 0 0 Left 0
WINDOW 39 0 0 Left 0
SYMATTR InstName V2
SYMATTR Value 0
SYMBOL voltage -208 -448 R0
WINDOW 123 0 0 Left 0
WINDOW 39 0 0 Left 0
SYMATTR InstName V3
SYMATTR Value 10
SYMBOL voltage -64 -448 R0
WINDOW 123 0 0 Left 0
WINDOW 39 0 0 Left 0
SYMATTR InstName V4
SYMATTR Value 10
SYMBOL voltage 80 -448 R0
WINDOW 123 0 0 Left 0
WINDOW 39 0 0 Left 0
SYMATTR InstName V5
SYMATTR Value 0
SYMBOL voltage -208 -288 R0
WINDOW 123 0 0 Left 0
WINDOW 39 0 0 Left 0
SYMATTR InstName V6
SYMATTR Value 10
SYMBOL voltage -64 -288 R0
WINDOW 123 0 0 Left 0
WINDOW 39 0 0 Left 0
SYMATTR InstName V7
SYMATTR Value 10
SYMBOL voltage 80 -288 R0
WINDOW 123 0 0 Left 0
WINDOW 39 0 0 Left 0
SYMATTR InstName V8
SYMATTR Value 0
SYMBOL voltage 144 -592 R0
WINDOW 123 0 0 Left 0
WINDOW 39 0 0 Left 0
WINDOW 3 -20 -82 Left 2
SYMATTR InstName V10
SYMATTR Value PULSE(0 10 1 0.001 0.001 1 2)
SYMBOL voltage 16 -592 R0
WINDOW 123 0 0 Left 0
WINDOW 39 0 0 Left 0
WINDOW 3 -269 -85 Left 2
SYMATTR InstName V9
SYMATTR Value PULSE(0 10 2 0.001 0.001 2 4)
TEXT 240 -240 Left 2 !.tran 4
