Version 4
SHEET 1 2852 1416
WIRE 320 -336 256 -336
WIRE 672 -336 320 -336
WIRE 1984 -336 672 -336
WIRE -240 -240 -240 -288
WIRE 16 -240 -240 -240
WIRE -192 -208 -192 -288
WIRE 16 -208 -192 -208
WIRE 1824 -208 608 -208
WIRE -160 -176 -160 -288
WIRE 16 -176 -160 -176
WIRE -128 -144 -128 -288
WIRE 16 -144 -128 -144
WIRE 1760 -144 608 -144
WIRE -80 -112 -80 -288
WIRE 16 -112 -80 -112
WIRE -48 -80 -48 -288
WIRE 16 -80 -48 -80
WIRE 1696 -80 608 -80
WIRE 720 16 608 16
WIRE 1984 32 1984 -336
WIRE 2320 32 2080 32
WIRE 16 64 16 0
WIRE 1824 112 1824 -208
WIRE 1872 112 1824 112
WIRE 720 128 720 16
WIRE 720 128 320 128
WIRE 1760 144 1760 -144
WIRE 1872 144 1760 144
WIRE 1696 176 1696 -80
WIRE 1872 176 1696 176
WIRE 672 192 672 -336
WIRE 672 192 320 192
WIRE 1872 224 1072 224
WIRE 1872 256 1120 256
WIRE 2240 256 2208 256
WIRE -240 272 -240 -240
WIRE 144 272 -240 272
WIRE 1072 272 1072 224
WIRE 1072 272 496 272
WIRE 1872 288 1184 288
WIRE 2240 304 2208 304
WIRE -192 320 -192 -208
WIRE 144 320 -192 320
WIRE 1120 320 1120 256
WIRE 1120 320 496 320
WIRE 1872 336 1344 336
WIRE 2240 352 2208 352
WIRE -160 368 -160 -176
WIRE 144 368 -160 368
WIRE 1184 368 1184 288
WIRE 1184 368 496 368
WIRE 1872 368 1408 368
WIRE 1872 400 1488 400
WIRE 720 416 720 128
WIRE 720 416 496 416
WIRE -128 432 -128 -144
WIRE 144 432 -128 432
WIRE 1872 448 1632 448
WIRE 720 464 720 416
WIRE 720 464 496 464
WIRE -80 480 -80 -112
WIRE 144 480 -80 480
WIRE 1872 480 1696 480
WIRE 720 512 720 464
WIRE 720 512 496 512
WIRE 1872 512 1760 512
WIRE -48 528 -48 -80
WIRE 144 528 -48 528
WIRE 720 608 720 512
WIRE 720 608 320 608
WIRE 672 672 672 192
WIRE 672 672 320 672
WIRE 1984 672 1984 608
WIRE 2080 672 2080 608
WIRE -240 752 -240 272
WIRE 144 752 -240 752
WIRE -192 784 -192 320
WIRE 144 784 -192 784
WIRE 1344 784 1344 336
WIRE 1344 784 480 784
WIRE -160 816 -160 368
WIRE 144 816 -160 816
WIRE 1408 832 1408 368
WIRE 1408 832 480 832
WIRE -128 864 -128 432
WIRE 144 864 -128 864
WIRE 1488 880 1488 400
WIRE 1488 880 480 880
WIRE -80 896 -80 480
WIRE 144 896 -80 896
WIRE -48 928 -48 528
WIRE 144 928 -48 928
WIRE 720 1008 720 608
WIRE 720 1008 320 1008
WIRE 672 1056 672 672
WIRE 672 1056 320 1056
WIRE -240 1120 -240 752
WIRE 192 1120 -240 1120
WIRE 1632 1120 1632 448
WIRE 1632 1120 448 1120
WIRE -192 1152 -192 784
WIRE 192 1152 -192 1152
WIRE 1696 1168 1696 480
WIRE 1696 1168 448 1168
WIRE -160 1184 -160 816
WIRE 192 1184 -160 1184
WIRE -128 1216 -128 864
WIRE 192 1216 -128 1216
WIRE 1760 1216 1760 512
WIRE 1760 1216 448 1216
WIRE -80 1248 -80 896
WIRE 192 1248 -80 1248
WIRE -48 1280 -48 928
WIRE 192 1280 -48 1280
WIRE 320 1344 288 1344
WIRE 720 1344 720 1008
WIRE 720 1344 320 1344
WIRE 2320 1344 2320 32
WIRE 2320 1344 720 1344
FLAG 256 -336 Vpos
IOPIN 256 -336 In
FLAG -240 -288 A0
IOPIN -240 -288 In
FLAG -192 -288 A1
IOPIN -192 -288 In
FLAG -160 -288 A2
IOPIN -160 -288 In
FLAG -128 -288 B0
IOPIN -128 -288 In
FLAG -80 -288 B1
IOPIN -80 -288 In
FLAG -48 -288 B2
IOPIN -48 -288 In
FLAG 1984 672 SEL1
IOPIN 1984 672 In
FLAG 2080 672 SEL0
IOPIN 2080 672 In
FLAG 2240 256 Z0
IOPIN 2240 256 Out
FLAG 2240 304 Z1
IOPIN 2240 304 Out
FLAG 2240 352 Z2
IOPIN 2240 352 Out
FLAG 288 1344 Vneg
IOPIN 288 1344 In
FLAG 16 64 Cin
IOPIN 16 64 In
SYMBOL CARRY_SELECT_ADDER_SYM 320 -112 R0
SYMATTR InstName X1
SYMBOL MULTIPLIER_SYM 320 400 R0
SYMATTR InstName X2
SYMBOL GT_SYM 320 848 R0
SYMATTR InstName X3
SYMBOL ASR_SYMBOL 320 1200 R0
SYMATTR InstName X4
SYMBOL MUX3BIT_SYM 2032 224 R0
SYMATTR InstName X5
