Version 4
SHEET 1 880 680
WIRE 368 64 368 16
WIRE 256 128 176 128
WIRE 464 160 448 160
WIRE 528 160 464 160
WIRE 256 192 176 192
WIRE 368 288 368 256
FLAG 176 128 A
IOPIN 176 128 In
FLAG 176 192 B
IOPIN 176 192 In
FLAG 368 16 Vdd
IOPIN 368 16 In
FLAG -112 128 Vdd
IOPIN -112 128 In
FLAG 16 16 A
IOPIN 16 16 In
FLAG 16 208 B
IOPIN 16 208 In
FLAG 16 96 0
FLAG -112 208 0
FLAG 16 288 0
FLAG 368 288 0
FLAG 528 160 Y
IOPIN 528 160 Out
SYMBOL voltage 16 0 R0
WINDOW 3 -122 -40 Left 2
WINDOW 123 0 0 Left 0
WINDOW 39 0 0 Left 0
SYMATTR Value PULSE(0 2 2 0.001 0.001 2 4)
SYMATTR InstName V1
SYMBOL voltage 16 192 R0
WINDOW 3 -122 126 Left 2
WINDOW 123 0 0 Left 0
WINDOW 39 0 0 Left 0
SYMATTR Value PULSE(0 2 1 0.001 0.001 1 2)
SYMATTR InstName V2
SYMBOL voltage -112 112 R0
WINDOW 123 0 0 Left 0
WINDOW 39 0 0 Left 0
SYMATTR InstName V3
SYMATTR Value 2
SYMBOL XNOR_SYM 368 160 R0
SYMATTR InstName X1
TEXT 416 288 Left 2 !.tran 4
