Version 4
SHEET 1 880 680
WIRE 352 64 352 16
WIRE 240 128 160 128
WIRE 448 160 432 160
WIRE 512 160 448 160
WIRE 240 192 160 192
WIRE 352 288 352 256
FLAG 160 128 A
IOPIN 160 128 In
FLAG 160 192 B
IOPIN 160 192 In
FLAG 352 16 Vdd
IOPIN 352 16 In
FLAG -128 128 Vdd
IOPIN -128 128 In
FLAG 0 16 A
IOPIN 0 16 In
FLAG 0 208 B
IOPIN 0 208 In
FLAG 0 96 0
FLAG -128 208 0
FLAG 0 288 0
FLAG 352 288 0
FLAG 512 160 Y
IOPIN 512 160 Out
SYMBOL voltage 0 0 R0
WINDOW 3 -122 -40 Left 2
WINDOW 123 0 0 Left 0
WINDOW 39 0 0 Left 0
SYMATTR Value PULSE(0 2 2 0.001 0.001 2 4)
SYMATTR InstName V1
SYMBOL voltage 0 192 R0
WINDOW 3 -122 126 Left 2
WINDOW 123 0 0 Left 0
WINDOW 39 0 0 Left 0
SYMATTR Value PULSE(0 2 1 0.001 0.001 1 2)
SYMATTR InstName V2
SYMBOL voltage -128 112 R0
WINDOW 123 0 0 Left 0
WINDOW 39 0 0 Left 0
SYMATTR InstName V3
SYMATTR Value 2
SYMBOL XOR_SYM 352 160 R0
SYMATTR InstName X1
TEXT 400 288 Left 2 !.tran 4
